CRYSTAL
PRIMVEC 1
   -1.4292263106    -0.8399839681    -4.1686195764
   -1.2227663249    -3.7139954548     0.0000000000
   -2.9321554003     0.0000000000     0.0000000000
PRIMCOORD 1
4 1
29       2.7920740179     2.2769897115     2.0843097882       0.0000000000       0.0000000000       0.0000000000
47       0.0000000000     0.0000000000     0.0000000000       0.0000000000       0.0000000000       0.0000000000
8        1.3134989044     1.4900576925     1.1820185422       0.0000000000       0.0000000000       0.0000000000
8        4.2706491313     3.0639217305     2.9866010341       0.0000000000       0.0000000000       0.0000000000
