CRYSTAL
PRIMVEC 1
      4.0000000000       0.0000000000       0.0000000000
      0.0000000000       4.0000000000       0.0000000000
      0.0000000000       0.0000000000       4.0000000000
PRIMCOORD 1
5 1
56       0.0000000000       0.0000000000       0.0000000000       0.0000000000       0.0000000000       0.0000000000
22       2.0000000000       2.0000000000       2.0000000000       0.0000000000       0.0000000000       0.0000000000
8       0.0000000000       2.0000000000       2.0000000000       0.0000000000       0.0000000000       0.0000000000
8       2.0000000000       0.0000000000       2.0000000000       0.0000000000       0.0000000000       0.0000000000
8       2.0000000000       2.0000000000       0.0000000000       0.0000000000       0.0000000000       0.0000000000
